 &time_control
 run_days                            = 0,
 run_hours                           = 12,
 run_minutes                         = 0,
 run_seconds                         = 0,
 start_year                          = 2000, 2000, 2000,
 start_month                         = 01,   01,   01,
 start_day                           = 24,   24,   24,
 start_hour                          = 12,   12,   12,
 start_minute                        = 00,   00,   00,
 start_second                        = 00,   00,   00,
 end_year                            = 2000, 2000, 2000,
 end_month                           = 01,   01,   01,
 end_day                             = 25,   25,   25,
 end_hour                            = 12,   12,   12,
 end_minute                          = 00,   00,   00,
 end_second                          = 00,   00,   00,
 interval_seconds                    = 21600
 input_from_file                     = .true.,.true.,.true.,
 history_interval                    = 180,  60,   60,
 frames_per_outfile                  = 1000, 1000, 1000,
 restart                             = .false.,
 restart_interval                    = 5000,
 io_form_history                     = 2
 io_form_restart                     = 2
 io_form_input                       = 2
 io_form_boundary                    = 2
 debug_level                         = 0
<<<<<<< Updated upstream
=======
 all_ic_times                        = .false.,
 nwp_diagnostics                     = 1,
 iofields_filename                   = "./io.txt","./io.txt"
 ignore_iofields_warning             = .true.,
 io_form_auxhist11                   = 0,
 auxhist11_outname                   = "precip_d<domain>_<date>.grb",
 auxhist11_interval_m                = 60,60,60
 frames_per_auxhist11                = 1,1,1,
 io_form_auxhist2                    = 0,
 auxhist2_outname                    = "radar_d<domain>.<date>.nc",
 auxhist2_interval                   = 12280,60,
 io_form_auxhist23                   = 2,
 auxhist23_outname                   = "diags_d<domain>.<date>.nc",
 auxhist23_interval                  = 360,60,
 frames_per_auxhist23                = 1,1,
 bdy_inname                          = "wrfbdy_d<domain>_<date>"
 auxhist20_outname                    = "init_tend_enkf_d<domain>_<date>.nc",
 frames_per_auxhist20                 = 1000,1000,
 io_form_auxhist20                    = 2,
 auxhist20_interval_s                 = 3600,3600,
 auxhist7_outname                    = "init_tend_FLo_d<domain>_<date>.nc",
 auxhist7_begin_y                  = 2015,
 auxhist7_begin_mo                 = 04,
 auxhist7_begin_d                  = 29,
 auxhist7_begin_h                  = 00,
 auxhist7_begin_m                  = 00,
 auxhist7_begin_s                  = 00,
 auxhist7_end_y                    = 2015,
 auxhist7_end_mo                   = 04,
 auxhist7_end_d                    = 29,
 auxhist7_end_h                    = 00,
 auxhist7_end_m                    = 15,
 auxhist7_end_s                    = 00,
 frames_per_auxhist20                 = 1000,1000,
 io_form_auxhist20                    = 2,
 auxhist7_interval_s                 = 75,75
 
>>>>>>> Stashed changes
 /

 &domains
 time_step                           = 180,
 time_step_fract_num                 = 0,
 time_step_fract_den                 = 1,
 max_dom                             = 1,
 e_we                                = 74,    112,   94,
 e_sn                                = 61,    97,    91,
 e_vert                              = 30,    30,    30,
 p_top_requested                     = 5000,
 num_metgrid_levels                  = 27,
 num_metgrid_soil_levels             = 4,
 dx                                  = 30000, 10000,  3333.33,
 dy                                  = 30000, 10000,  3333.33,
 grid_id                             = 1,     2,     3,
 parent_id                           = 0,     1,     2,
 i_parent_start                      = 1,     31,    30,
 j_parent_start                      = 1,     17,    30,
 parent_grid_ratio                   = 1,     3,     3,
 parent_time_step_ratio              = 1,     3,     3,
 feedback                            = 1,
 smooth_option                       = 0
 /

 &physics
 mp_physics                          = 3,     3,     3,
 ra_lw_physics                       = 1,     1,     1,
 ra_sw_physics                       = 1,     1,     1,
 radt                                = 30,    30,    30,
 sf_sfclay_physics                   = 1,     1,     1,
 sf_surface_physics                  = 2,     2,     2,
 bl_pbl_physics                      = 1,     1,     1,
 bldt                                = 0,     0,     0,
 cu_physics                          = 1,     1,     0,
 cudt                                = 5,     5,     5,
 isfflx                              = 1,
 ifsnow                              = 1,
 icloud                              = 1,
 surface_input_source                = 1,
 num_soil_layers                     = 4,
 sf_urban_physics                    = 0,     0,     0,
 /

 &fdda
 /

 &dynamics
 w_damping                           = 0,
 diff_opt                            = 1,      1,      1,
 km_opt                              = 4,      4,      4,
 diff_6th_opt                        = 0,      0,      0,
 diff_6th_factor                     = 0.12,   0.12,   0.12,
 base_temp                           = 290.
 damp_opt                            = 0,
 zdamp                               = 5000.,  5000.,  5000.,
 dampcoef                            = 0.2,    0.2,    0.2
 khdif                               = 0,      0,      0,
 kvdif                               = 0,      0,      0,
 non_hydrostatic                     = .true., .true., .true.,
 moist_adv_opt                       = 1,      1,      1,     
 scalar_adv_opt                      = 1,      1,      1,     
 /

 &bdy_control
 spec_bdy_width                      = 5,
 spec_zone                           = 1,
 relax_zone                          = 4,
 specified                           = .true., .false.,.false.,
 nested                              = .false., .true., .true.,
 /

 &grib2
 /

 &namelist_quilt
 nio_tasks_per_group = 0,
 nio_groups = 1,
 /
